Version 4
SHEET 1 880 680
WIRE -320 -224 -384 -224
WIRE -288 -224 -320 -224
WIRE -384 -192 -384 -224
WIRE -144 -144 -288 -144
WIRE -144 -128 -144 -144
WIRE 128 -48 128 -64
WIRE 304 -32 288 -32
WIRE 384 -32 368 -32
WIRE -96 48 -176 48
WIRE 0 48 -16 48
WIRE 288 48 288 -32
WIRE 304 48 288 48
WIRE 384 48 384 -32
WIRE -272 80 -736 80
WIRE -736 96 -736 80
WIRE 384 96 384 48
WIRE 336 112 320 80
WIRE 80 128 80 48
WIRE 144 128 80 128
WIRE 208 128 144 128
WIRE 288 128 288 48
WIRE 304 128 288 128
WIRE 384 144 384 96
WIRE 384 144 368 144
WIRE 304 160 272 160
WIRE 272 176 272 160
WIRE -96 208 -176 208
WIRE 0 208 -16 208
WIRE 80 208 80 128
WIRE -256 240 -176 128
WIRE 144 240 144 192
WIRE 80 256 80 208
FLAG -736 176 0
FLAG -272 160 0
FLAG -384 -112 0
FLAG -288 -64 0
FLAG -144 -64 0
FLAG 16 -64 0
FLAG 64 0 0
FLAG 16 256 0
FLAG 128 -48 0
FLAG -144 -144 AGND
FLAG -256 240 AGND
FLAG 272 176 AGND
FLAG 16 -144 I
FLAG 16 0 I
FLAG 128 -144 Q
FLAG -320 -224 VCC
FLAG 320 80 VCC
FLAG 336 176 0
FLAG 64 256 I
FLAG 144 240 0
FLAG 384 96 V_out
FLAG -352 144 0
SYMBOL Opamps\\LT6231 336 144 R0
WINDOW 0 14 75 Left 2
SYMATTR InstName U1
SYMBOL sw 96 48 R90
WINDOW 0 -39 9 Left 2
WINDOW 3 -86 111 Left 2
SYMATTR InstName S1
SYMATTR Value MYSW
SYMBOL sw 96 208 M270
WINDOW 0 -34 3 Left 2
SYMATTR InstName S2
SYMATTR Value MYSW
SYMBOL voltage 16 -160 R0
WINDOW 123 0 0 Left 0
WINDOW 39 0 0 Left 0
WINDOW 3 -128 -29 Left 2
SYMATTR Value SINE(0 10 {f} 0 0 0)
SYMATTR InstName V1
SYMBOL voltage 128 -160 R0
WINDOW 123 0 0 Left 0
WINDOW 39 0 0 Left 0
WINDOW 3 6 -28 Left 2
SYMATTR Value SINE(0 10 {f} 0 0 90)
SYMATTR InstName V2
SYMBOL voltage -736 80 R0
WINDOW 123 0 0 Left 0
WINDOW 39 24 124 Left 2
SYMATTR SpiceLine Rser=50
SYMATTR InstName V3
SYMATTR Value SINE(0 10e-6 {f+10000})
SYMBOL ind2 -192 32 R0
SYMATTR InstName L1
SYMATTR Value 0.7µ
SYMATTR Type ind
SYMBOL ind2 -192 112 R0
SYMATTR InstName L2
SYMATTR Value 0.7µ
SYMATTR Type ind
SYMBOL ind2 -288 64 R0
SYMATTR InstName L3
SYMATTR Value 0.7µ
SYMATTR Type ind
SYMBOL res -304 -160 R0
SYMATTR InstName R1
SYMATTR Value 2200
SYMBOL res -304 -240 R0
WINDOW 3 44 63 Left 2
SYMATTR Value 2.2k
SYMATTR InstName R2
SYMBOL cap -160 -128 R0
SYMATTR InstName C1
SYMATTR Value 0.1e-6
SYMBOL voltage -384 -208 R0
WINDOW 123 0 0 Left 0
WINDOW 39 0 0 Left 0
SYMATTR InstName V4
SYMATTR Value 4.3
SYMBOL res 304 112 R90
WINDOW 0 0 56 VBottom 2
WINDOW 3 32 56 VTop 2
SYMATTR InstName R3
SYMATTR Value 10
SYMBOL res 400 32 R90
WINDOW 0 0 56 VBottom 2
WINDOW 3 -2 -24 VTop 2
SYMATTR InstName R4
SYMATTR Value 1k
SYMBOL cap 368 -48 R90
WINDOW 0 57 24 VBottom 2
WINDOW 3 -30 35 VTop 2
SYMATTR InstName C2
SYMATTR Value 2000p
SYMBOL cap 128 128 R0
SYMATTR InstName C3
SYMATTR Value 0.02µ
SYMBOL res 0 32 R90
WINDOW 0 0 56 VBottom 2
WINDOW 3 32 56 VTop 2
SYMATTR InstName R6
SYMATTR Value 50
SYMBOL res 0 192 R90
WINDOW 0 0 56 VBottom 2
WINDOW 3 32 56 VTop 2
SYMATTR InstName R7
SYMATTR Value 50
TEXT -232 -296 Left 2 !.model MYSW SW(Ron=1 Roff=1Meg Vt=0 Vh=0)
TEXT -416 8 Left 2 !K1 L1 L2 L3 1
TEXT -752 40 Left 2 !.param f=14.0e6
TEXT -752 -40 Left 2 !.noise V(V_out) V3 dec 10 10e0 30e6
